data_image0
_chemical_formula_structural       Pt
_chemical_formula_sum              "Pt1"
_cell_length_a       2.7882282983380127
_cell_length_b       2.7882288764325875
_cell_length_c       2.78822786
_cell_angle_alpha    59.99999995767598
_cell_angle_beta     59.99999309912164
_cell_angle_gamma    60.00000910768901

_space_group_name_H-M_alt    "P 1"
_space_group_IT_number       1

loop_
  _space_group_symop_operation_xyz
  'x, y, z'

loop_
  _atom_site_type_symbol
  _atom_site_label
  _atom_site_symmetry_multiplicity
  _atom_site_fract_x
  _atom_site_fract_y
  _atom_site_fract_z
  _atom_site_occupancy
  Pt  Pt1       1.0  0.0  0.0  0.0  1.0000
